LTspice 24.0.12 for Windows
Circuit: * C:\Users\SPrabha\Documents\LTspice\1N750 Zener Diode AC Analysis.asc
Start Time: Thu Mar  5 23:17:31 2026
solver = Normal
Maximum thread count: 22



Direct Newton iteration for .op point succeeded.
.step temp=25ḞC



.step temp=50ḞC



.step temp=75ḞC



.step temp=100ḞC



.step temp=125ḞC



.step temp=150ḞC



.step temp=175ḞC
tnom = 27
temp = 200
method = modified trap
.step temp=200ḞC
Total elapsed time: 0.329 seconds.

