LTspice 24.0.12 for Windows
Circuit: * C:\Users\SPrabha\Documents\LTspice\1N750 Zener Diode DC Analysis.asc
Start Time: Thu Mar  5 23:18:03 2026
solver = Normal
Maximum thread count: 22



v1: Missing value, assumed 0V @ DC
.step temp=25ḞC
.OP point found by inspection.



.step temp=50ḞC



.step temp=75ḞC



.step temp=100ḞC



.step temp=125ḞC



.step temp=150ḞC



.step temp=175ḞC
tnom = 27
temp = 200
method = modified trap
.step temp=200ḞC
Total elapsed time: 0.359 seconds.

